test/data/case3_exp.json
{
  "areas": [],
  "baseMVA": 100.0,
  "branch": [
    {
      "angmax": 30.0,
      "angmin": -30.0,
      "br_b": 0.45,
      "br_r": 0.065,
      "br_status": 1,
      "br_x": 0.62,
      "f_bus": 1,
      "index": 1,
      "rate_a": 9000.0,
      "rate_b": 0.0,
      "rate_c": 0.0,
      "shift": 0.0,
      "t_bus": 3,
      "construction_cost": 1,
      "tap": 0.0
    },
    {
      "angmax": 30.0,
      "angmin": -30.0,
      "br_b": 0.7,
      "br_r": 0.025,
      "br_status": 1,
      "br_x": 0.75,
      "f_bus": 3,
      "index": 2,
      "rate_a": 50.0,
      "rate_b": 0.0,
      "rate_c": 0.0,
      "shift": 0.0,
      "t_bus": 2,
      "construction_cost": 1,
      "tap": 0.0
    },
    {
      "angmax": 30.0,
      "angmin": -30.0,
      "br_b": 0.7,
      "br_r": 0.025,
      "br_status": 1,
      "br_x": 0.75,
      "f_bus": 3,
      "index": 4,
      "rate_a": 0.0,
      "rate_b": 0.0,
      "rate_c": 0.0,
      "shift": 0.0,
      "t_bus": 2,
      "construction_cost": 1,
      "tap": 0.0
    },
    {
      "angmax": 30.0,
      "angmin": -30.0,
      "br_b": 0.3,
      "br_r": 0.042,
      "br_status": 1,
      "br_x": 0.9,
      "f_bus": 1,
      "index": 3,
      "rate_a": 9000.0,
      "rate_b": 0.0,
      "rate_c": 0.0,
      "shift": 0.0,
      "t_bus": 2,
      "tap": 0.0
    }
  ],
  "bus": [
    {
      "area": 1,
      "base_kv": 240.0,
      "bs": 0.0,
      "bus_i": 1,
      "bus_type": 3,
      "gs": 0.0,
      "index": 1,
      "pd": 110.0,
      "qd": 40.0,
      "va": -0.0,
      "vm": 1.1,
      "vmax": 1.1,
      "vmin": 0.9,
      "zone": 1
    },
    {
      "area": 1,
      "base_kv": 240.0,
      "bs": 0.0,
      "bus_i": 2,
      "bus_type": 2,
      "gs": 0.0,
      "index": 2,
      "pd": 110.0,
      "qd": 40.0,
      "va": 7.25886,
      "vm": 0.92617,
      "vmax": 1.1,
      "vmin": 0.9,
      "zone": 1
    },
    {
      "area": 1,
      "base_kv": 240.0,
      "bs": 0.0,
      "bus_i": 3,
      "bus_type": 2,
      "gs": 0.0,
      "index": 3,
      "pd": 95.0,
      "qd": 50.0,
      "va": -17.26711,
      "vm": 0.9,
      "vmax": 1.1,
      "vmin": 0.9,
      "zone": 1
    }
  ],
  "dcline": [],
  "gen": [
    {
      "apf": 0.0,
      "gen_bus": 1,
      "gen_status": 1,
      "index": 1,
      "mbase": 100.0,
      "pc1": 0.0,
      "pc2": 0.0,
      "pg": 148.067,
      "pmax": 2000.0,
      "pmin": 0.0,
      "qc1max": 0.0,
      "qc1min": 0.0,
      "qc2max": 0.0,
      "qc2min": 0.0,
      "qg": 54.697,
      "qmax": 1000.0,
      "qmin": -1000.0,
      "ramp_30": 0.0,
      "ramp_agc": 0.0,
      "ramp_q": -1000.0,
      "vg": 1.1
    },
    {
      "apf": 0.0,
      "gen_bus": 2,
      "gen_status": 1,
      "index": 2,
      "mbase": 100.0,
      "pc1": 0.0,
      "pc2": 0.0,
      "pg": 170.006,
      "pmax": 2000.0,
      "pmin": 0.0,
      "qc1max": 0.0,
      "qc1min": 0.0,
      "qc2max": 0.0,
      "qc2min": 0.0,
      "qg": -8.791,
      "qmax": 1000.0,
      "qmin": -1000.0,
      "ramp_30": 0.0,
      "ramp_agc": 0.0,
      "ramp_q": -1000.0,
      "vg": 0.92617
    },
    {
      "apf": 0.0,
      "gen_bus": 3,
      "gen_status": 1,
      "index": 3,
      "mbase": 100.0,
      "pc1": 0.0,
      "pc2": 0.0,
      "pg": 0.0,
      "pmax": 0.0,
      "pmin": 0.0,
      "qc1max": 0.0,
      "qc1min": 0.0,
      "qc2max": 0.0,
      "qc2min": 0.0,
      "qg": -4.843,
      "qmax": 1000.0,
      "qmin": -1000.0,
      "ramp_30": 0.0,
      "ramp_agc": 0.0,
      "ramp_q": -1000.0,
      "vg": 0.9
    }
  ],
  "gencost": [
    {
      "cost": [
        0.11,
        5.0,
        0.0
      ],
      "index": 1,
      "model": 2,
      "ncost": 3,
      "shutdown": 0.0,
      "startup": 0.0
    },
    {
      "cost": [
        0.085,
        1.2,
        0.0
      ],
      "index": 2,
      "model": 2,
      "ncost": 3,
      "shutdown": 0.0,
      "startup": 0.0
    },
    {
      "cost": [
        0.0,
        0.0,
        0.0
      ],
      "index": 3,
      "model": 2,
      "ncost": 3,
      "shutdown": 0.0,
      "startup": 0.0
    }
  ],
  "name": "nesta_case3_lmbd",
  "version": "'2'"
}